# Open-boundaries
 &OBCS_PARM01
 OB_Iwest=1*1,
 OB_Ieast=1*0,
 OB_Jnorth=256*0,
 OB_Jsouth=256*0,
 useOBCSsponge=.TRUE.,
 useOBCSprescribe=.TRUE.,
 OBWuFile = '../indata/Uw.bin',
 OBWtFile = '../indata/Tw.bin',
 # OBEuFile = '../indata/Ue.bin',
 # OBEtFile = '../indata/Te.bin',
 /

# Orlanski parameters
 &OBCS_PARM02
 /

# Sponge layer parameters
 &OBCS_PARM03
 Urelaxobcsinner=1000.,
 Urelaxobcsbound=100.,
 spongeThickness=13,
 /