# Packages
 &PACKAGES
 useKL10=.FALSE.,
 useKPP=.FALSE.,
 useDIAGNOSTICS=.TRUE.,
 useMNC=.TRUE.,
 useOBCS=.TRUE.,
 /
